start_year:              2000
start_month:             01
start_day:               04
start_hour:              00
start_minute:            0
start_second:            0
nhours_fcst:             24
dt_atmos:                900
fhrot:                   0